*include,input=all.msh
*include,input=fix.nam
*include,input=load.nam
*boundary
Nfix,1,6
** material definition
*material, name=steel
*elastic
210000,0.3
*density
7.85e-9
*shell section, elset=Eall, material=steel, offset=0.5
1.0
*STEP
*frequency
10
*node file, output=3d
U
*end step
