*include,input=all.msh
*include,input=fix.nam
*include,input=load.nam
*boundary
Nfix,1,3
** material definition
*material, name=steel
*elastic
210000,0.3,0
*density
7.85e-9
*solid section, elset=Eall, material=steel
*step
*frequency
10
*node file
U
*end step
