SUMMARY OF JOB INFORMATION
  STEP      INC     ATT  ITRS     TOT TIME     STEP TIME      INC TIME
     1          1     1     1  0.200000E-01  0.200000E-01  0.200000E-01
     1          2     1     2  0.400000E-01  0.400000E-01  0.200000E-01
     1          3     1     2  0.600000E-01  0.600000E-01  0.200000E-01
     1          4     1     2  0.800000E-01  0.800000E-01  0.200000E-01
     1          5     1     2  0.100000E+00  0.100000E+00  0.200000E-01
     1          6     1     2  0.120000E+00  0.120000E+00  0.200000E-01
     1          7     1     2  0.140000E+00  0.140000E+00  0.200000E-01
     1          8     1     2  0.160000E+00  0.160000E+00  0.200000E-01
     1          9     1     2  0.180000E+00  0.180000E+00  0.200000E-01
     1         10     1     2  0.200000E+00  0.200000E+00  0.200000E-01
     1         11     1     2  0.220000E+00  0.220000E+00  0.200000E-01
     1         12     1     2  0.240000E+00  0.240000E+00  0.200000E-01
     1         13     1     2  0.260000E+00  0.260000E+00  0.200000E-01
     1         14     1     2  0.280000E+00  0.280000E+00  0.200000E-01
     1         15     1     2  0.300000E+00  0.300000E+00  0.200000E-01
     1         16     1     2  0.320000E+00  0.320000E+00  0.200000E-01
     1         17     1     2  0.340000E+00  0.340000E+00  0.200000E-01
     1         18     1     2  0.360000E+00  0.360000E+00  0.200000E-01
     1         19     1     2  0.380000E+00  0.380000E+00  0.200000E-01
     1         20     1     2  0.400000E+00  0.400000E+00  0.200000E-01
     1         21     1     2  0.420000E+00  0.420000E+00  0.200000E-01
     1         22     1     2  0.440000E+00  0.440000E+00  0.200000E-01
     1         23     1     2  0.460000E+00  0.460000E+00  0.200000E-01
     1         24     1     2  0.480000E+00  0.480000E+00  0.200000E-01
     1         25     1     2  0.500000E+00  0.500000E+00  0.200000E-01
     1         26     1     2  0.520000E+00  0.520000E+00  0.200000E-01
     1         27     1     2  0.540000E+00  0.540000E+00  0.200000E-01
     1         28     1     2  0.560000E+00  0.560000E+00  0.200000E-01
     1         29     1     2  0.580000E+00  0.580000E+00  0.200000E-01
     1         30     1     2  0.600000E+00  0.600000E+00  0.200000E-01
     1         31     1     2  0.620000E+00  0.620000E+00  0.200000E-01
     1         32     1     2  0.640000E+00  0.640000E+00  0.200000E-01
     1         33     1     2  0.660000E+00  0.660000E+00  0.200000E-01
     1         34     1     2  0.680000E+00  0.680000E+00  0.200000E-01
     1         35     1     2  0.700000E+00  0.700000E+00  0.200000E-01
     1         36     1     2  0.720000E+00  0.720000E+00  0.200000E-01
     1         37     1     2  0.740000E+00  0.740000E+00  0.200000E-01
     1         38     1     2  0.760000E+00  0.760000E+00  0.200000E-01
     1         39     1     2  0.780000E+00  0.780000E+00  0.200000E-01
     1         40     1     2  0.800000E+00  0.800000E+00  0.200000E-01
     1         41     1     2  0.820000E+00  0.820000E+00  0.200000E-01
     1         42     1     2  0.840000E+00  0.840000E+00  0.200000E-01
     1         43     1     2  0.860000E+00  0.860000E+00  0.200000E-01
     1         44     1     2  0.880000E+00  0.880000E+00  0.200000E-01
     1         45     1     2  0.900000E+00  0.900000E+00  0.200000E-01
     1         46     1     2  0.920000E+00  0.920000E+00  0.200000E-01
     1         47     1     2  0.940000E+00  0.940000E+00  0.200000E-01
     1         48     1     2  0.960000E+00  0.960000E+00  0.200000E-01
     1         49     1     2  0.980000E+00  0.980000E+00  0.200000E-01
     1         50     1     2  0.100000E+01  0.100000E+01  0.200000E-01
     1         51     1     2  0.102000E+01  0.102000E+01  0.200000E-01
     1         52     1     2  0.104000E+01  0.104000E+01  0.200000E-01
     1         53     1     2  0.106000E+01  0.106000E+01  0.200000E-01
     1         54     1     2  0.108000E+01  0.108000E+01  0.200000E-01
     1         55     1     2  0.110000E+01  0.110000E+01  0.200000E-01
     1         56     1     2  0.112000E+01  0.112000E+01  0.200000E-01
     1         57     1     2  0.114000E+01  0.114000E+01  0.200000E-01
     1         58     1     2  0.116000E+01  0.116000E+01  0.200000E-01
     1         59     1     2  0.118000E+01  0.118000E+01  0.200000E-01
     1         60     1     2  0.120000E+01  0.120000E+01  0.200000E-01
     1         61     1     2  0.122000E+01  0.122000E+01  0.200000E-01
     1         62     1     2  0.124000E+01  0.124000E+01  0.200000E-01
     1         63     1     2  0.126000E+01  0.126000E+01  0.200000E-01
     1         64     1     2  0.128000E+01  0.128000E+01  0.200000E-01
     1         65     1     2  0.130000E+01  0.130000E+01  0.200000E-01
     1         66     1     2  0.132000E+01  0.132000E+01  0.200000E-01
     1         67     1     2  0.134000E+01  0.134000E+01  0.200000E-01
     1         68     1     2  0.136000E+01  0.136000E+01  0.200000E-01
     1         69     1     2  0.138000E+01  0.138000E+01  0.200000E-01
     1         70     1     2  0.140000E+01  0.140000E+01  0.200000E-01
     1         71     1     2  0.142000E+01  0.142000E+01  0.200000E-01
     1         72     1     2  0.144000E+01  0.144000E+01  0.200000E-01
     1         73     1     2  0.146000E+01  0.146000E+01  0.200000E-01
     1         74     1     2  0.148000E+01  0.148000E+01  0.200000E-01
     1         75     1     2  0.150000E+01  0.150000E+01  0.200000E-01
     1         76     1     2  0.152000E+01  0.152000E+01  0.200000E-01
     1         77     1     2  0.154000E+01  0.154000E+01  0.200000E-01
     1         78     1     2  0.156000E+01  0.156000E+01  0.200000E-01
     1         79     1     2  0.158000E+01  0.158000E+01  0.200000E-01
     1         80     1     2  0.160000E+01  0.160000E+01  0.200000E-01
     1         81     1     2  0.162000E+01  0.162000E+01  0.200000E-01
     1         82     1     2  0.164000E+01  0.164000E+01  0.200000E-01
     1         83     1     2  0.166000E+01  0.166000E+01  0.200000E-01
     1         84     1     2  0.168000E+01  0.168000E+01  0.200000E-01
     1         85     1     2  0.170000E+01  0.170000E+01  0.200000E-01
     1         86     1     2  0.172000E+01  0.172000E+01  0.200000E-01
     1         87     1     2  0.174000E+01  0.174000E+01  0.200000E-01
     1         88     1     2  0.176000E+01  0.176000E+01  0.200000E-01
     1         89     1     2  0.178000E+01  0.178000E+01  0.200000E-01
     1         90     1     2  0.180000E+01  0.180000E+01  0.200000E-01
     1         91     1     2  0.182000E+01  0.182000E+01  0.200000E-01
     1         92     1     2  0.184000E+01  0.184000E+01  0.200000E-01
     1         93     1     2  0.186000E+01  0.186000E+01  0.200000E-01
     1         94     1     2  0.188000E+01  0.188000E+01  0.200000E-01
     1         95     1     2  0.190000E+01  0.190000E+01  0.200000E-01
     1         96     1     2  0.192000E+01  0.192000E+01  0.200000E-01
     1         97     1     2  0.194000E+01  0.194000E+01  0.200000E-01
     1         98     1     2  0.196000E+01  0.196000E+01  0.200000E-01
     1         99     1     2  0.198000E+01  0.198000E+01  0.200000E-01
     1        100     1     2  0.200000E+01  0.200000E+01  0.200000E-01
