*include, input=all.msh
*include, input=k1.equ
*MATERIAL, NAME=Aluminium
*ELASTIC
70000, 0.34
*DENSITY
2.7e-9
*SHELL SECTION, ELSET=Eall,MATERIAL=Aluminium
0.1
*step,nlgeom
*static
*end step
*STEP,perturbation
*frequency
20
*NODE FILE
U
*el file
S
*END STEP
