**
**   Structure: Cantilever beam under tensile forces
**   Test objective: Material card *CREEP
**
*HEADING
Model: beam     Date: 10-Mar-1998
*NODE
     1,      0.000000,      0.000000,      0.000000
     2,      1.000000,      0.000000,      0.000000
     3,      1.000000,      1.000000,      0.000000
     4,      0.000000,      1.000000,      0.000000
     5,      0.000000,      0.000000,      8.000000
     6,      1.000000,      0.000000,      8.000000
     7,      1.000000,      1.000000,      8.000000
     8,      0.000000,      1.000000,      8.000000
     9,      0.250000,      0.000000,      0.000000
    10,      0.500000,      0.000000,      0.000000
    11,      0.750000,      0.000000,      0.000000
    12,      1.000000,      0.250000,      0.000000
    13,      1.000000,      0.500000,      0.000000
    14,      1.000000,      0.750000,      0.000000
    15,      0.750000,      1.000000,      0.000000
    16,      0.500000,      1.000000,      0.000000
    17,      0.250000,      1.000000,      0.000000
    18,      0.000000,      0.750000,      0.000000
    19,      0.000000,      0.500000,      0.000000
    20,      0.000000,      0.250000,      0.000000
** ... 241 like lines cut
*ELEMENT, TYPE=C3D20R   , ELSET=B1
     1,     1,    10,    95,    19,    61,   105,   222,   192,     9,    93,
           94,    20,   104,   220,   221,   193,    62,   103,   219,   190
     2,    10,     2,    13,    95,   105,    34,   134,   222,    11,    12,
           96,    93,   106,   133,   223,   220,   103,    33,   132,   219
     3,    19,    95,    16,     4,   192,   222,   163,    79,    94,    97,
           17,    18,   221,   224,   164,   191,   190,   219,   161,    78
     4,    95,    13,     3,    16,   222,   134,    64,   163,    96,    14,
           15,    97,   223,   135,   162,   224,   219,   132,    63,   161
     5,    61,   105,   222,   192,    59,   109,   228,   196,   104,   220,
          221,   193,   108,   226,   227,   197,    60,   107,   225,   194
     6,   105,    34,   134,   222,   109,    36,   138,   228,   106,   133,
          223,   220,   110,   137,   229,   226,   107,    35,   136,   225
     7,   192,   222,   163,    79,   196,   228,   167,    81,   221,   224,
          164,   191,   227,   230,   168,   195,   194,   225,   165,    80
     8,   222,   134,    64,   163,   228,   138,    66,   167,   223,   135,
          162,   224,   229,   139,   166,   230,   225,   136,    65,   165
     9,    59,   109,   228,   196,    57,   113,   234,   200,   108,   226,
          227,   197,   112,   232,   233,   201,    58,   111,   231,   198
    10,   109,    36,   138,   228,   113,    38,   142,   234,   110,   137,
          229,   226,   114,   141,   235,   232,   111,    37,   140,   231
** ... 44 like lines cut
*NSET, NSET=CN7
    97,    96,    95,    94,    93,    20,    19,    18,    17,    16,    15,
    14,    13,    12,    11,    10,     9,     4,     3,     2,     1
*Nset, nset=monitor
100
*BOUNDARY
CN7,3,3
1,1,2
2,2,2
*ELSET,ELSET=EALL,GENERATE
1,32
*NSET,NSET=NALL,GENERATE
1,261
*Material, name=AZ91
*Elastic
44300., 0.33
*Creep
 4.38e-18,  7.27, -0.47
*Density
 1.74e-09,

*MATERIAL,NAME=HY
*ELASTIC
210000.,.3
*PLASTIC
0.,0.
0.,10.
*CREEP
1.e-10,5.,0.
*SOLID SECTION,ELSET=EALL,MATERIAL=AZ91
*NSET,NSET=LAST
5,6,7,8,22,25,28,31,100
*SURFACE, NAME=Sload
29, S2
30, S2
32, S2
31, S2
*node
1000, 0.5,0.5,10.0
*coupling,ref node=1000,surface=Sload,constraint name=c1 
*distributing
1,6
*STEP,INC=1000,NLGEOM
*VISCO,CETOL=8.e-4
10, 24000, 1, 1000
*CLOAD
1000,3,82
** *dsLOAD
** Sload,P,-82
*NODE file
U, rf
*EL file
S,PE
*node print, nset=monitor
U
*node print, nset=cn7, totals=yes
RF
*END STEP
