*include, input=all.msh
*include, input=fix.sur
*include, input=rfix.nam
** material definition
*material, name=steel
*elastic
210000,0.3
*density
7.85e-9
** material assignment to bodies
*solid section, elset=Eall, material=steel
** coupling
*coupling,surface=Sfix,refnode=1,constraint name=fix
*distributing
1,6
*step
*frequency
10
*node file
U
*end step
*step
*frequency
10
*boundary
Nrfix,1,3
Nrfix,4,6
*node file
U
*end step
