*include, input=all.msh
*include, input=fix.nam
** constraints
*boundary
Nfix,2
** material definition
*material, name=steel
*elastic
210000,0.3
** *plastic
** 200,0
** 1000,1
*density
7.85e-9
** material assignment to bodies
*solid section, elset=Eall, material=steel
*step
*static
*dload
*include, input=pr.dlo
*node file
U
*el file, output=2D
S
*end step
