*include, input=all.msh
*include, input=flange.nam
*include, input=web.nam
*include, input=seam.nam
*include, input=contact.inc
**constraints
*boundary
*include, input=symx_1.bou
*include, input=symz_3.bou
*include, input=p2_2.bou
** material definition
*material, name=steel
*elastic
210000,0.3
*expansion
12e-6
*conductivity
50.,0
*specific heat
*5e8,0
** material assignment to bodies
*solid section, elset=Eall, material=steel
** contact definitions
*initial conditions, type=temperature
Nall, 0
*step
*static
*temperature
**Nflange,0
**Nweb,0
Nseam,-1000
*node file
U
*el file
S
*end step
