*include, input=all.msh
*include, input=f1.nam
*include, input=f2.nam
*include, input=core.nam
*include, input=cyl1.nam
*include, input=cyl2.nam

** surface definitions
*include, input=cyl1.sur
*include, input=cyl2.sur
*include, input=f1_t.sur
*include, input=f2_b.sur
** constraints
*boundary
*include, input=xsym_1.bou
*include, input=ysym_2.bou
Ncyl1,1,3
Ncyl2,1,3
** tying equations
*include, input=core_t.equ
*include, input=core_b.equ
** material definition
*material, name=sheet
*elastic
210000,0.3
*plastic
200,0
1000,1
*material, name=core
*elastic
5000,0.3
*plastic
4,0
10,1
** material assignment to bodies
*solid section, elset=Ef1, material=sheet
*solid section, elset=Ef2, material=sheet
*solid section, elset=Ecore, material=core
** cylinder shells
*shell section, elset=Ecyl1, material=sheet, offset=0.5
1
*shell section, elset=Ecyl2, material=sheet, offset=0.5
1
** contact definitions
*surface interaction, name=tool
*surface behavior, pressure-overclosure=linear
100000,0.1,0.1
***friction
**0.1,1e7
*contact pair, interaction=tool, type=node to surface
**Sf1_t,Scyl1
**Sf2_b,Scyl2
Scyl1,Sf1_t
Scyl2,Sf2_b
*step,nlgeom
*static
0.001,1,0.000001
*boundary
Ncyl1,3,3,-20
*node file
U
*el file
S,PE
*contact file
CDIS
*node print, nset=Ncyl1, totals=only
RF
*end step
