*include, input=all.msh
*include, input=lower.nam
*include, input=upper.nam
*include, input=double.nam
*include, input=single.nam
*include, input=cyl1.nam
*include, input=cyl2.nam
** surface definitions
*include, input=lower.sur
*include, input=upper.sur
*include, input=cyl1.sur
*include, input=cyl2.sur

** constraints
*boundary
*include, input=xsym_1.bou
*include, input=ysym_2.bou
Ncyl1,1,3
Ncyl2,1,3
** material definition
*material, name=alu
*elastic
72000,0.3
** *plastic
** 160,0
** 300,1
** material and thickness assignment to bodies
*shell section, elset=Elower, material=alu,offset=-0.5
1
*shell section, elset=Eupper, material=alu,offset=-0.5
1
*shell section, elset=Esingle, material=alu
0.1
*shell section, elset=Edouble, material=alu
0.1
** cylinder shells
*shell section, elset=Ecyl1, material=alu, offset=0.5
1
*shell section, elset=Ecyl2, material=alu, offset=0.5
1
** contact definitions
*surface interaction, name=tool
*surface behavior, pressure-overclosure=linear
100000
*friction
0.1,10000
*contact pair, interaction=tool, type=surface to surface
Supper,Scyl2
Slower,Scyl1
*step,nlgeom
*static
0.001,1,0.000001
*boundary
Ncyl2,3,3,-2
*node file
U
*el file
S
** *contact file
** CDIS
** *node print, nset=Ncyl1, totals=only
** RF
*end step
