SUMMARY OF JOB INFORMATION
  STEP      INC     ATT  ITRS     TOT TIME     STEP TIME      INC TIME
     1          1     1     6  0.100000E-03  0.100000E-03  0.100000E-03
     1          2     1     2  0.200000E-03  0.200000E-03  0.100000E-03
     1          3     1     3  0.300000E-03  0.300000E-03  0.100000E-03
     1          4     1     3  0.450000E-03  0.450000E-03  0.150000E-03
     1          5     1     3  0.675000E-03  0.675000E-03  0.225000E-03
     1          6     1     5  0.101250E-02  0.101250E-02  0.337500E-03
     1          7     1     8  0.135000E-02  0.135000E-02  0.337500E-03
     1          8     1     8  0.168750E-02  0.168750E-02  0.337500E-03
     1          9     1     5  0.202500E-02  0.202500E-02  0.337500E-03
     1         10     1     5  0.236250E-02  0.236250E-02  0.337500E-03
     1         11     1     5  0.270000E-02  0.270000E-02  0.337500E-03
     1         12     1     5  0.303750E-02  0.303750E-02  0.337500E-03
     1         13     1     4  0.337500E-02  0.337500E-02  0.337500E-03
     1         14     1     3  0.371250E-02  0.371250E-02  0.337500E-03
     1         15     1     3  0.421875E-02  0.421875E-02  0.506250E-03
     1         16     1     5  0.497813E-02  0.497813E-02  0.759375E-03
     1         17     1U    4  0.497813E-02  0.497813E-02  0.759375E-03
     1         17     2     4  0.516797E-02  0.516797E-02  0.189844E-03
     1         18     1     2  0.535781E-02  0.535781E-02  0.189844E-03
     1         19     1     7  0.564258E-02  0.564258E-02  0.284766E-03
     1         20     1     4  0.592734E-02  0.592734E-02  0.284766E-03
     1         21     1     6  0.621211E-02  0.621211E-02  0.284766E-03
     1         22     1     5  0.649688E-02  0.649688E-02  0.284766E-03
     1         23     1     4  0.678164E-02  0.678164E-02  0.284766E-03
     1         24     1     2  0.706641E-02  0.706641E-02  0.284766E-03
     1         25     1     5  0.749355E-02  0.749355E-02  0.427148E-03
     1         26     1     6  0.792070E-02  0.792070E-02  0.427148E-03
     1         27     1     4  0.834785E-02  0.834785E-02  0.427148E-03
     1         28     1     3  0.877500E-02  0.877500E-02  0.427148E-03
     1         29     1     6  0.941572E-02  0.941572E-02  0.640723E-03
     1         30     1     5  0.100564E-01  0.100564E-01  0.640723E-03
     1         31     1     5  0.106972E-01  0.106972E-01  0.640723E-03
     1         32     1     5  0.113379E-01  0.113379E-01  0.640723E-03
     1         33     1     3  0.119786E-01  0.119786E-01  0.640723E-03
     1         34     1     5  0.126193E-01  0.126193E-01  0.640723E-03
     1         35     1     4  0.132601E-01  0.132601E-01  0.640723E-03
     1         36     1     5  0.139008E-01  0.139008E-01  0.640723E-03
     1         37     1     6  0.145415E-01  0.145415E-01  0.640723E-03
     1         38     1     4  0.151822E-01  0.151822E-01  0.640723E-03
     1         39     1     4  0.158229E-01  0.158229E-01  0.640723E-03
     1         40     1     3  0.167840E-01  0.167840E-01  0.961084E-03
     1         41     1     4  0.182257E-01  0.182257E-01  0.144163E-02
     1         42     1     5  0.203881E-01  0.203881E-01  0.216244E-02
     1         43     1     3  0.225505E-01  0.225505E-01  0.216244E-02
     1         44     1     5  0.247130E-01  0.247130E-01  0.216244E-02
     1         45     1U    4  0.247130E-01  0.247130E-01  0.216244E-02
     1         45     2     3  0.252536E-01  0.252536E-01  0.540610E-03
     1         46     1     4  0.257942E-01  0.257942E-01  0.540610E-03
     1         47     1     7  0.266051E-01  0.266051E-01  0.810915E-03
     1         48     1     5  0.274160E-01  0.274160E-01  0.810915E-03
     1         49     1     3  0.282269E-01  0.282269E-01  0.810915E-03
     1         50     1     3  0.290379E-01  0.290379E-01  0.810915E-03
     1         51     1     6  0.302542E-01  0.302542E-01  0.121637E-02
     1         52     1     5  0.314706E-01  0.314706E-01  0.121637E-02
     1         53     1     6  0.326870E-01  0.326870E-01  0.121637E-02
     1         54     1     4  0.339033E-01  0.339033E-01  0.121637E-02
     1         55     1     6  0.351197E-01  0.351197E-01  0.121637E-02
     1         56     1     3  0.363361E-01  0.363361E-01  0.121637E-02
     1         57     1     3  0.375525E-01  0.375525E-01  0.121637E-02
     1         58     1     5  0.393770E-01  0.393770E-01  0.182456E-02
     1         59     1     4  0.412016E-01  0.412016E-01  0.182456E-02
     1         60     1     4  0.430261E-01  0.430261E-01  0.182456E-02
     1         61     1     8  0.457630E-01  0.457630E-01  0.273684E-02
     1         62     1     6  0.484998E-01  0.484998E-01  0.273684E-02
     1         63     1     3  0.512366E-01  0.512366E-01  0.273684E-02
     1         64     1     6  0.539735E-01  0.539735E-01  0.273684E-02
     1         65     1     5  0.567103E-01  0.567103E-01  0.273684E-02
     1         66     1     4  0.594472E-01  0.594472E-01  0.273684E-02
     1         67     1     4  0.621840E-01  0.621840E-01  0.273684E-02
     1         68     1     3  0.662892E-01  0.662892E-01  0.410526E-02
     1         69     1     3  0.724471E-01  0.724471E-01  0.615788E-02
     1         70     1     7  0.816840E-01  0.816840E-01  0.923682E-02
     1         71     1     7  0.909208E-01  0.909208E-01  0.923682E-02
     1         72     1     7  0.100158E+00  0.100158E+00  0.923682E-02
     1         73     1     3  0.109394E+00  0.109394E+00  0.923682E-02
     1         74     1     3  0.118631E+00  0.118631E+00  0.923682E-02
     1         75     1     3  0.132486E+00  0.132486E+00  0.138552E-01
     1         76     1     6  0.153269E+00  0.153269E+00  0.207829E-01
     1         77     1     2  0.174052E+00  0.174052E+00  0.207829E-01
     1         78     1     4  0.194835E+00  0.194835E+00  0.207829E-01
     1         79     1     4  0.226009E+00  0.226009E+00  0.311743E-01
     1         80     1     4  0.272771E+00  0.272771E+00  0.467614E-01
     1         81     1     7  0.342913E+00  0.342913E+00  0.701421E-01
     1         82     1     5  0.413055E+00  0.413055E+00  0.701421E-01
     1         83     1     3  0.483197E+00  0.483197E+00  0.701421E-01
     1         84     1     2  0.553339E+00  0.553339E+00  0.701421E-01
     1         85     1     2  0.658552E+00  0.658552E+00  0.105213E+00
     1         86     1     2  0.816372E+00  0.816372E+00  0.157820E+00
     1         87     1     3  0.100000E+01  0.100000E+01  0.183628E+00
