*include,input=all.msh
*include,input=support.nam
** symmetry at bottom
*boundary
Nsupport,1,3
** material definition
*material, name=steel
*elastic
210000,0.3,0
*solid section, elset=Eall, material=steel
*STEP
*STATIC
*dload
*include,input=load.dlo
*el file
S
*node file
U
*end step
