*include, input=all.msh
*include, input=fix.nam
*include, input=load.sur
*include, input=rload.nam
*boundary
Nfix,1,3
** material definition
*material, name=dummy
*elastic
10000,0
** material assignment to bodies
*solid section, elset=Eall, material=dummy
** coupling
*coupling,surface=Sload,refnode=1,constraint name=load
*distributing
1,6
** Moment about x
*step
*static
*cload
Nrload,4,1000.
*node file
U
*el file
S
*section print, surface=Sload, name=so1
SOF
*el print, elset=Eall, totals=only
ELSE
*end step
** Moment about y
*step
*static
*cload, op=new
Nrload,5,1000.
*node file
U
*el file
S
*section print, surface=Sload, name=so1
SOF
*el print, elset=Eall, totals=only
ELSE
*end step
** Moment about z
*step
*static
*cload, op=new
Nrload,6,1000.
*node file
U
*el file
S
*section print, surface=Sload, name=so1
SOF
*el print, elset=Eall, totals=only
ELSE
*end step
