*include,input=all.msh
*include,input=fix.nam
*include,input=rot.nam
*include,input=fix.sur
*boundary
Nfix,1,6
** material definition
*material, name=steel
*elastic
210000,0.3,0
*shell section, elset=Eall, material=steel
1
*STEP, NLGEOM
*STATIC
*boundary
Nrot,5,5,1.57
*el file
S
*node file
U
*el print, elset=Eall, totals=only
ELSE
*section print, surface=Sfix, name=fix
SOF
*end step
