*include,input=all.msh
*include,input=rot.nam
*include,input=rotnode.nam
*rigid body, nset=nrot, rot node=1
*boundary
*include,input=fix_123.bou
** material definition
*material, name=steel
*elastic
210000,0.3,0
*solid section, elset=Eall, material=steel
*STEP, NLGEOM, inc=1000
*STATIC
*boundary
nrotnode, 2,2,1.57
*el file
S
*node file
U
*el print, elset=Eall, totals=only
ELSE
*node print, nset=nrotnode
RF
*end step
