*INCLUDE, INPUT=all.msh
*INCLUDE, INPUT=x0.nam
*INCLUDE, INPUT=vsy2.nam
*INCLUDE, INPUT=vsr5.nam
*INCLUDE, INPUT=press.sur
*INCLUDE, INPUT=vc.sur
*INCLUDE, INPUT=vsc.sur

*BOUNDARY
Nx0,1,1,0
Nvsy2,2,2,0
Nvsr5,1,1,0

*MATERIAL,NAME=STEEL
*ELASTIC
210000,0.3
*SOLID SECTION, Elset=Eall, Material=STEEL

*CONTACT PAIR, INTERACTION=contact, TYPE=Surface TO SURFACE
**slave,master
Svc,Svsc
*SURFACE INTERACTION, NAME=contact
*SURFACE BEHAVIOR, PRESSURE-OVERCLOSURE=LINEAR
10000000,0.1,0.01
*friction
0.3,1000000
*STEP, NLGEOM, INC=200
*STATIC
*dsload
Spress,P,20
*NODE FILE,OUTPUT=2D
U
*EL FILE
S
*CONTACT FILE
CDIS,cstr
*END STEP
